SOL 101
CEND
  TITLE = test
  ECHO = NONE
  DISPLACEMENT(PLOT) = ALL
  SPCFORCE(PLOT) = ALL
  OLOAD(PLOT) = ALL
  FORCE(PLOT,CORNER) = ALL
  STRESS(PLOT,CORNER) = ALL
  SPC = 1
  LOAD = 1
BEGIN BULK
PARAM,AUTOSPC,YES
FORCE          1   25329       0      1.   1000.      0.      0.
SPC1           1  123456   25328
$234567><234567><234567><234567><234567><234567><234567><234567><234567>
PSHELL         1       2      .1       2      .1       2      .1
PBUSH          2       K    1.+9    1.+9    1.+9    1.+9    1.+9    1.+9                
MAT1           2   2.9+7             .29     .29      0.      0.        
GRID           1       0      1.      0.      0.       0
GRID           2       0.9987569.0498459      0.       0
GRID           3       0.9950308.0995678      0.       0
GRID           4       0.9888308.1490423      0.       0
GRID           5       0.9801725.1981461      0.       0
GRID           6       0.9690773.2467574      0.       0
GRID           7       0.9555728.2947552      0.       0
GRID           8       0.9396926.3420201      0.       0
GRID           9       0.9214762.3884348      0.       0
GRID          10       0.9009689.4338837      0.       0
GRID          11       0.8782216 .478254      0.       0
GRID          12       0.8532909.5214352      0.       0
GRID          13       0.8262388.5633201      0.       0
GRID          14       0.7971325.6038044      0.       0
GRID          15       0.7660444.6427876      0.       0
GRID          16       0.7330519.6801727      0.       0
GRID          17       0.6982368.7158668      0.       0
GRID          18       0.6616858.7497812      0.       0
GRID          19       0.6234898.7818315      0.       0
GRID          20       0.5837437 .811938      0.       0
$ ... 25309 like lines cut
CQUAD4         1       1       1       2     527     526                
CQUAD4         2       1       2       3     528     527                
CQUAD4         3       1       3       4     529     528                
CQUAD4         4       1       4       5     530     529                
CQUAD4         5       1       5       6     531     530                
CQUAD4         6       1       6       7     532     531                
CQUAD4         7       1       7       8     533     532                
CQUAD4         8       1       8       9     534     533                
CQUAD4         9       1       9      10     535     534                
CQUAD4        10       1      10      11     536     535                
CQUAD4        11       1      11      12     537     536                
CQUAD4        12       1      12      13     538     537                
CQUAD4        13       1      13      14     539     538                
CQUAD4        14       1      14      15     540     539                
CQUAD4        15       1      15      16     541     540                
CQUAD4        16       1      16      17     542     541                
CQUAD4        17       1      17      18     543     542                
CQUAD4        18       1      18      19     544     543                
CQUAD4        19       1      19      20     545     544                
CQUAD4        20       1      20      21     546     545                
$ ... 25180 like lines cut
RBE3       25201           25327  123456      1.     123       1       2+       
+              3       4       5       6       7       8       9      10+       
+             11      12      13      14      15      16      17      18+       
+             19      20      21      22      23      24      25      26+       
+             27      28      29      30      31      32      33      34+       
+             35      36      37      38      39      40      41      42+       
+             43      44      45      46      47      48      49      50+       
+             51      52      53      54      55      56      57      58+       
+             59      60      61      62      63      64   12865   12866+       
+          12867   12868   12869   12870   12871   12872   12873   12874+       
+          12875   12876   12877   12878   12879   12880   12881   12882+       
+          12883   12884   12885   12886   12887   12888   12889   12890+       
+          12891   12892   12893   12894   12895   12896   12897   12898+       
+          12899   12900   12901   12902   12903   12904   12905   12906+       
+          12907   12908   12909   12910   12911   12912   12913   12914+       
+          12915   12916   12917   12918   12919   12920   12921   12922+       
+          12923   12924   12925   12926
CBUSH      25202       2   25327   25328.5773503.5773503.5773503        
RBE3       25203           25329  123456      1.     123     264     265+       
+            266     267     268     269     270     271     272     273+       
+            274     275     276     277     278     279     280     281+       
+            282     283     284     285     286     287     288     289+       
+            290     291     292     293     294     295     296     297+       
+            298     299     300     301     302     303     304     305+       
+            306     307     308     309     310     311     312     313+       
+            314     315     316     317     318     319     320     321+       
+            322     323     324     325     326     327   12927   12928+       
+          12929   12930   12931   12932   12933   12934   12935   12936+       
+          12937   12938   12939   12940   12941   12942   12943   12944+       
+          12945   12946   12947   12948   12949   12950   12951   12952+       
+          12953   12954   12955   12956   12957   12958   12959   12960+       
+          12961   12962   12963   12964   12965   12966   12967   12968+       
+          12969   12970   12971   12972   12973   12974   12975   12976+       
+          12977   12978   12979   12980   12981   12982   12983   12984+       
+          12985   12986   12987   12988
ENDDATA 4df7151c
