ID test,CONTN
SOL 101
CEND
  TITLE = Static
  ECHO = NONE
  DISPLACEMENT(PRINT) = ALL
  SPCFORCE(PRINT) = ALL
  OLOAD(PRINT) = ALL
  FORCE(PRINT,CORNER) = ALL
  STRESS(PRINT,CORNER) = ALL
  SPC = 1
  LOAD = 1
BEGIN BULK
PARAM,PRGPST,YES
PARAM,POST,-1
PARAM,OGEOM,NO
PARAM,AUTOSPC,YES
$PARAM,K6ROT,100. - REMOVED SINCE NOT FULLY FUNCTIONAL IN MYSTRAN 15.1.4
PARAM,GRDPNT,0
$
$<--1--><--2---><--3---><--4---><--5---><--6---><--7---><--8---><--9---><--10-->
CORD2C         1       0      0.      0.      0.      0.      0.      1.+CONTNC1
+CONTNC1      1.      0.      1.        
CORD2S         2       0      0.      0.      0.      0.      0.      1.+CONTNC2
+CONTNC2      1.      0.      1.        
FORCE          1       3       0      1.   1250.   2500.    750.
FORCE          1       7       0      1.   1250.   2500.    750.
FORCE          1       2       0      1.  -2420.   1720.    500.
FORCE          1       4       0      1.  -2420.   1720.    500.
SPC1           1  123456       1
SPC1           1  123456       6
PBAR           1       1    200.6666.6671666.6674579.392      0.        +       
+           -10.     -5.     10.     -5.     10.      5.    -10.      5.+       
+       .8499305 .850701      0.
MAT1           1  70000.             .33      0.      0.      0.        
GRID           1       0      0.      0.      0.       0
GRID           2       0      0.    125.    150.       0
GRID           3       0      0.    250.    300.       0
GRID           4       0    350.    375.    150.       0
GRID           5       0    350.    375.    150.       0
GRID           6       0    500.    500.      0.       0
GRID           7       0    200.    280.    300.       0
CBAR           1       1       1       2       4                
CBAR           2       1       2       3       6                
CBAR           3       1       3       7      0.      0.      1.        +       
+                             0.      0.      0.-66.459636.77019-80.1242
CBAR           4       1       2       4      0.      0.      1.        +       
+                             0.      0.      0.-37.8882 31.0559-37.2671
CBAR           5       1       7       4      1.      0.      0.        +       
+                       -66.459636.77019-80.1242-37.8882 31.0559-37.2671
CBAR           6       1       4       6      1.      0.      0.        +       
+                       -37.8882 31.0559-37.2671      0.      0.      0.
$
$ DEBUG IS USED TO REQUEST ANS FILE, WHICH IS EASIER TO PARSE FOR BENCHMARKING (THIS IS MYSTRAN SPECIFIC)
DEBUG   200     1                                                       ANS
$
ENDDATA
