ID TEST,CONTN
SOL 101
CEND
  TITLE = STATIC
  ECHO = NONE
  DISPLACEMENT(PRINT,PUNCH) = ALL
  SPCFORCE(PRINT,PUNCH) = ALL
  OLOAD(PRINT,PUNCH) = ALL
  FORCE(PRINT,CORNER) = ALL
  STRESS(PRINT,CORNER) = ALL
  SPC = 1
  LOAD = 1
BEGIN BULK
PARAM,PRGPST,YES
PARAM,POST,-1
PARAM,OGEOM,NO
PARAM,AUTOSPC,YES
$PARAM,K6ROT,0.
PARAM,GRDPNT,0
CORD2C         1       0      0.      0.      0.      0.      0.      1.+CONTNC1
+CONTNC1      1.      0.      1.        
CORD2S         2       0      0.      0.      0.      0.      0.      1.+CONTNC2
+CONTNC2      1.      0.      1.        
PLOAD4         1       1      1.
PLOAD4         1       2      1.
PLOAD4         1       3      1.
PLOAD4         1       4      1.
PLOAD4         1       5      1.
PLOAD4         1       6      1.
PLOAD4         1       7      1.
PLOAD4         1       8      1.
PLOAD4         1       9      1.
PLOAD4         1      10      1.
PLOAD4         1      11      1.
PLOAD4         1      12      1.
PLOAD4         1      13      1.
PLOAD4         1      14      1.
PLOAD4         1      15      1.
PLOAD4         1      16      1.
PLOAD4         1      17      1.
PLOAD4         1      18      1.
PLOAD4         1      19      1.
PLOAD4         1      20      1.
$ ... 1004 like lines cut
SPC1           1     123       1
SPC1           1     123       2
SPC1           1     123       3
SPC1           1     123       4
SPC1           1     123       5
SPC1           1     123       6
SPC1           1     123       7
SPC1           1     123       8
SPC1           1     123       9
SPC1           1     123      10
SPC1           1     123      11
SPC1           1     123      12
SPC1           1     123      13
SPC1           1     123      14
SPC1           1     123      15
SPC1           1     123      16
SPC1           1     123      17
SPC1           1     123      18
SPC1           1     123      19
SPC1           1     123      20
$ ... 108 like lines cut
PSHELL         1       1      .1       1               1              0.
MAT1           1    1.+73759398.     .33      0.      0.      0.        
GRID           1       0     -5.     -5.      0.       0
GRID           2       0      5.     -5.      0.       0
GRID           3       0      5.      5.      0.       0
GRID           4       0     -5.      5.      0.       0
GRID           5       0 -4.6875     -5.      0.       0
GRID           6       0  -4.375     -5.      0.       0
GRID           7       0 -4.0625     -5.      0.       0
GRID           8       0   -3.75     -5.      0.       0
GRID           9       0 -3.4375     -5.      0.       0
GRID          10       0  -3.125     -5.      0.       0
GRID          11       0 -2.8125     -5.      0.       0
GRID          12       0    -2.5     -5.      0.       0
GRID          13       0 -2.1875     -5.      0.       0
GRID          14       0  -1.875     -5.      0.       0
GRID          15       0 -1.5625     -5.      0.       0
GRID          16       0   -1.25     -5.      0.       0
GRID          17       0  -.9375     -5.      0.       0
GRID          18       0   -.625     -5.      0.       0
GRID          19       0  -.3125     -5.      0.       0
GRID          20       0      0.     -5.      0.       0
$ ... 1069 like lines cut
CQUAD4         1       1     370     369     358     355                
CQUAD4         2       1     359     368     365     362                
CQUAD4         3       1     596     597     594     595                
CQUAD4         4       1     369     368     359     358                
CQUAD4         5       1     365     330     341     362                
CQUAD4         6       1     588     584     580     591                
CQUAD4         7       1     620     621     623     624                
CQUAD4         8       1     584     583     581     580                
CQUAD4         9       1     601     599     597     596                
CQUAD4        10       1     417     350     352     404                
CQUAD4        11       1     559     594     579     577                
CQUAD4        12       1     431     432     433     434                
CQUAD4        13       1     591     592     589     588                
CQUAD4        14       1     814     817     816     815                
CQUAD4        15       1     501     492     495     500                
CQUAD4        16       1     340     341     330     327                
CQUAD4        17       1     797     795     376     377                
CQUAD4        18       1     790     793     801     787                
CQUAD4        19       1     559     577     574     558                
CQUAD4        20       1     426     424     423     425                
$ ... 1004 like lines cut
$
$ DEBUG IS USED TO REQUEST ANS FILE, WHICH IS EASIER TO PARSE FOR BENCHMARKING (THIS IS MYSTRAN SPECIFIC)
DEBUG   200     1                                                       ANS
$
ENDDATA
